52

O       9.43791999      19.55889998      -4.94032999
O      11.66924999      25.06244997      -4.65594999
O      13.35727998      24.59880997      -2.96792000
C      10.60904847      15.49419828      -7.42028071
O      11.66924999      20.98114998      -8.73724999
O      13.35727998      19.29311998      -8.27360999
H       8.05869750      15.02433450      -5.23287513
C       9.49621365      14.89865792      -6.83002841
H      11.06759587      15.04889366      -8.29363597
H       9.08457907      13.98656202      -7.24246266
N      10.55129686      17.24290764      -5.77448756
H      11.99899928      17.11715121      -7.32889003
C      11.12348096      23.20226612      -0.34713102
C       9.46373624      21.51054961      -0.33334616
H      11.99476431      23.65772104      -0.79380528
C      10.59703107      23.75541426       0.82224289
C       8.91202917      22.03439311       0.83804552
H      11.05110838      24.63212585       1.26484230
C       9.48164962      23.16740634       1.41496084
H       8.05011922      21.56529806       1.29388361
H       9.06219678      23.58690150       2.32017620
N      10.54991047      22.10038044      -0.91794863
H       9.02009219      20.62781596      -0.77028185
N      15.40396901      22.10089311      -5.77954785
C      15.96951508      21.52800610      -6.88450082
C      15.97797135      23.20073972      -5.20583434
Fe      13.69128998      21.31221998      -4.98701999
S       8.59553999      20.24683998      -3.92164000
S      12.40355999      24.05484997      -3.92164000
H      15.53227914      20.64495534      -7.32647228
S      12.40355999      20.24683998      -7.72965999
C      17.11636045      22.07537579      -7.46391606
C      17.12889028      23.77196398      -5.75391448
Fe      11.33817999      21.31221998      -2.63391000
Fe      11.33817999      18.95910998      -4.98701999
H      15.54507275      23.64415285      -4.32125336
H      17.54875956      21.62668065      -8.34883409
C      17.69639633      23.20690074      -6.89432835
H      17.57392464      24.64762187      -5.29965086
H      18.58465880      23.64237390      -7.33357425
C       9.46558822      16.65778307      -5.18460966
C      11.12864405      16.66946228      -6.87284799
O      13.09149998      21.26552998      -6.88727999
O      13.09149998      23.21246997      -4.94032999
H       9.01847700      17.09697446      -4.30483448
C       8.92005717      15.48090094      -5.70293424
O       7.58794999      20.98114998      -4.65594999
O      12.09076999      20.55962998      -4.23443000
O       9.43791999      21.26552998      -3.23370000
O      11.38486999      23.21246997      -3.23370000
O       8.05158999      19.29311998      -2.96792000
O      11.38486999      19.55889998      -6.88727999
